LTspice 24.1.7 for Windows
Circuit: C:\Users\emili\Desktop\Control\Taller9_TDCM\RetoPBF.net
Start Time: Sun Jun 22 18:06:53 2025
solver = Normal
Maximum thread count: 8
tnom = 27
temp = 27
method = trap
.OP point found by inspection.
Total elapsed time: 0.051 seconds.

Files loaded:
C:\Users\emili\Desktop\Control\Taller9_TDCM\RetoPBF.net

